Version 4
SHEET 1 996 680
WIRE 64 -128 -32 -128
WIRE 224 -128 224 -208
WIRE 224 -128 64 -128
WIRE 352 -128 224 -128
WIRE 512 -128 352 -128
WIRE -32 -16 -32 -128
WIRE 64 -16 64 -128
WIRE 512 -16 512 -128
WIRE 400 80 112 80
WIRE -496 96 -528 96
WIRE -256 96 -496 96
WIRE 352 176 352 -128
WIRE 352 176 304 176
WIRE -32 192 -32 64
WIRE 144 192 -32 192
WIRE 400 192 400 80
WIRE 512 192 512 64
WIRE 512 192 400 192
WIRE 816 192 512 192
WIRE -176 208 -176 96
WIRE -32 208 -32 192
WIRE -32 208 -176 208
WIRE 352 208 304 208
WIRE 112 224 112 80
WIRE 144 224 112 224
WIRE 320 240 304 240
WIRE 64 320 64 64
WIRE 320 320 320 240
WIRE 320 320 64 320
WIRE 64 352 64 320
WIRE -528 432 -560 432
WIRE 64 432 -528 432
WIRE 352 432 352 208
WIRE 352 432 64 432
WIRE -528 480 -528 432
WIRE -528 480 -560 480
WIRE -496 480 -496 96
WIRE -496 480 -528 480
FLAG 224 -288 0
FLAG -560 480 0
FLAG -416 -96 0
FLAG 816 192 CMOS_XOR
FLAG -528 96 L_detect
FLAG -560 432 GND_detect
SYMBOL res -160 80 R90
WINDOW 0 0 56 VBottom 2
WINDOW 3 32 56 VTop 2
SYMATTR InstName R1
SYMATTR Value 100k
SYMBOL res -16 80 R180
WINDOW 0 36 76 Left 2
WINDOW 3 36 40 Left 2
SYMATTR InstName R2
SYMATTR Value 1Mega
SYMBOL res 80 80 R180
WINDOW 0 36 76 Left 2
WINDOW 3 36 40 Left 2
SYMATTR InstName R3
SYMATTR Value 1Mega
SYMBOL res 528 80 R180
WINDOW 0 36 76 Left 2
WINDOW 3 36 40 Left 2
SYMATTR InstName Rpullup
SYMATTR Value 100K
SYMBOL res 80 448 R180
WINDOW 0 36 76 Left 2
WINDOW 3 36 40 Left 2
SYMATTR InstName R4
SYMATTR Value 1Mega
SYMBOL voltage 224 -192 R180
WINDOW 0 24 96 Left 2
WINDOW 3 24 16 Left 2
SYMATTR InstName Vcc
SYMATTR Value 3.3V
SYMBOL voltage -416 0 R180
WINDOW 0 24 96 Left 2
WINDOW 3 24 16 Left 2
SYMATTR InstName Vdetect
SYMATTR Value 5V
SYMBOL AutoGenerated\\TLV7041 208 192 R0
SYMATTR InstName U1
TEXT -584 504 Left 2 !.op
